CRYSTAL
PRIMVEC 1
     -3.4460000000       3.4460000000       7.6635000000
      3.4460000000      -3.4460000000       7.6635000000
      3.4460000000       3.4460000000      -7.6635000000
PRIMCOORD 1
12 1
19       0.0000000000       3.4460000000       3.8317500000
19       0.0000000000       0.0000000000       0.0000000000
81       3.4460000000       0.0000000000       3.8317500000
81       0.0000000000       0.0000000000       7.6635000000
17       4.5590580000       1.7105944000       5.1376104000
17       1.7354056000       4.5590580000       1.3058604000
17       2.3329420000      -1.7105944000       5.1376104000
17       1.7105944000      -1.1130580000       8.9693604000
17       2.3329420000       1.7354056000      -1.3058604000
17       5.1565944000      -1.1130580000       2.5258896000
17       1.1130580000       1.7105944000       6.3576396000
17       1.7354056000       1.1130580000       2.5258896000
