CRYSTAL
PRIMVEC 1
      3.1610000000       0.0000000000       0.0000000000
     -1.5805000000       2.7375063014       0.0000000000
      0.0000000000       0.0000000000      12.2950000000
PRIMCOORD 1
6 1
42       0.0000000000       1.8250042009       3.0737500000
42       2.5805000000       0.8125021005       9.4212500000
16       1.0000000000       1.7250042009       7.9151125000
16       1.5805000000       0.9125021005       1.5676125000
16       1.0000000000       1.7250042009      10.9273875000
16       1.5805000000       0.9125021005       4.5798875000
