CRYSTAL
PRIMVEC
5.0045 0.0 0.0
0.0 5.7457 0.0
0.0 0.0 11.0485
PRIMCOORD
16 1
50 0.0 0.0 5.52425
50 0.0 0.0 0.0
50 2.50225 2.87285 5.52425
50 2.50225 2.87285 0.0
50 0.0 3.386860322 8.04618061
50 0.0 2.3588396780000003 2.52193061
50 2.50225 0.514010322 8.04618061
50 2.50225 5.231689678 2.52193061
8 0.0 3.73700328 5.8711729
8 0.0 2.00869672 0.3469229
8 2.50225 0.8641532799999999 5.8711729
8 2.50225 4.88154672 0.3469229
8 0.0 5.41991881 7.7206918
8 0.0 0.32578119 2.1964418
8 2.50225 2.5470688100000003 7.7206918
8 2.50225 3.19863119 2.1964418
